ModelTransf-Tool/Prototype/examples/Ren/ren_20210721_PF_solved.raw
0,   100.00, 33, 0, 1, 50.00     / PSS(R)E-33.4    WED, JUL 21 2021  16:54


 11015,'CARTELLE    ', 400.0000,1,   1,  99, 111,1.13835, -28.3134,1.10000,0.90000,1.10000,0.90000
 11016,'CARTELLE    ', 400.0000,1,   1,  99, 111,1.13835, -28.3074,1.10000,0.90000,1.10000,0.90000
 14030,'CEDILLO     ', 400.0000,1,   1,  99, 116,1.11340, -38.9953,1.10000,0.90000,1.10000,0.90000
 15013,'BROVALES    ', 400.0000,1,   1,  99, 111,1.09663, -39.7362,1.10000,0.90000,1.10000,0.90000
 22010,'ALDEADAV    ', 220.0000,1,   1,  99, 134,1.16687, -37.3691,1.10000,0.90000,1.10000,0.90000
 22011,'ALDEADAV    ', 220.0000,1,   1,  99, 134,1.17723, -36.2392,1.10000,0.90000,1.10000,0.90000
 22195,'SAUCELLE    ', 220.0000,1,   1,  99, 112,1.15995, -37.3403,1.10000,0.90000,1.10000,0.90000
 70101,'ZEZERE      ', 150.0000,1,   6,   7,   2,1.09303, -40.6730,1.10000,0.90000,1.10000,0.90000
 70103,'ERMESIN     ', 150.0000,1,   6,   4,   2,1.11492, -38.3991,1.10000,0.90000,1.10000,0.90000
 70104,'SETUBAL     ', 150.0000,1,   6,  11,   2,1.08483, -39.1386,1.10000,0.90000,1.10000,0.90000
 70105,'F.ALENT     ', 150.0000,1,   6,  12,   2,1.07612, -37.6751,1.10000,0.90000,1.10000,0.90000
 70108,'VERMOIM     ', 150.0000,1,   6,   4,   2,1.11641, -38.3453,1.10000,0.90000,1.10000,0.90000
 70109,'P.ALTO      ', 150.0000,1,   6,  11,   2,1.08142, -39.5938,1.10000,0.90000,1.10000,0.90000
 70113,'TUNES       ', 150.0000,1,   6,  13,   2,1.06462, -41.8262,1.10000,0.90000,1.10000,0.90000
 70115,'F.FERRO     ', 150.0000,1,   6,  11,   2,1.08305, -40.0153,1.10000,0.90000,1.10000,0.90000
 70117,'PALMELA     ', 150.0000,1,   6,  11,   2,1.08466, -38.9832,1.10000,0.90000,1.10000,0.90000
 70119,'SINES       ', 150.0000,1,   6,  12,   2,1.08582, -35.0061,1.10000,0.90000,1.10000,0.90000
 70120,'VALDIGE     ', 150.0000,1,   6,   2,   2,1.09923, -35.6480,1.10000,0.90000,1.10000,0.90000
 70122,'RIBADAV     ', 150.0000,1,   6,   1,   2,1.11426, -37.4760,1.10000,0.90000,1.10000,0.90000
 70127,'GUIMARA     ', 150.0000,1,   6,   1,   2,1.11252, -37.6254,1.10000,0.90000,1.10000,0.90000
 70131,'V.FRIA      ', 150.0000,1,   6,   1,   2,1.10764, -38.6495,1.10000,0.90000,1.10000,0.90000
 70139,'EVORA       ', 150.0000,1,   6,  12,   2,1.08858, -40.0935,1.10000,0.90000,1.10000,0.90000
 70140,'TRAFARIA    ', 150.0000,1,   6,  11,   2,1.08138, -40.2367,1.10000,0.90000,1.10000,0.90000
 70141,'FAFE        ', 150.0000,1,   6,   1,   2,1.11662, -37.4994,1.10000,0.90000,1.10000,0.90000
 70150,'OURIQUE     ', 150.0000,1,   6,  12,   2,1.07157, -38.9775,1.10000,0.90000,1.10000,0.90000
 70155,'CHAVES      ', 150.0000,1,   6,   1,   2,1.09716, -36.9405,1.10000,0.90000,1.10000,0.90000
 70156,'ESTOI       ', 150.0000,1,   6,  13,   2,1.05226, -42.5853,1.10000,0.90000,1.10000,0.90000
 70157,'FALAGUE     ', 150.0000,1,   6,  14,   2,1.09354, -45.4252,1.10000,0.90000,1.10000,0.90000
 70161,'OLEIROS     ', 150.0000,1,   6,   1,   2,1.10917, -38.3119,1.10000,0.90000,1.10000,0.90000
 70163,'RUIVAES     ', 150.0000,1,   6,   1,   2,1.11082, -37.7584,1.10000,0.90000,1.10000,0.90000
 70171,'ERMIDAS     ', 150.0000,1,   6,  12,   2,1.08056, -36.5090,1.10000,0.90000,1.10000,0.90000
 70172,'M.PEDRA     ', 150.0000,1,   6,  12,   2,1.08576, -37.2814,1.10000,0.90000,1.10000,0.90000
 70173,'SABOIA      ', 150.0000,1,   6,  12,   2,1.07292, -39.0290,1.10000,0.90000,1.10000,0.90000
 70177,'PORTIMAO    ', 150.0000,1,   6,  13,   2,1.06582, -41.2845,1.10000,0.90000,1.10000,0.90000
 70180,'CANICAD     ', 150.0000,1,   6,   1,   2,1.11275, -37.0492,1.10000,0.90000,1.10000,0.90000
 70181,'C.BRANCO    ', 150.0000,1,   6,   7,   2,1.09040, -44.4576,1.10000,0.90000,1.10000,0.90000
 70182,'PEDRALVA    ', 150.0000,1,   6,   1,   2,1.11082, -37.6254,1.10000,0.90000,1.10000,0.90000
 70183,'FRADES      ', 150.0000,1,   6,   1,   2,1.11380, -36.5094,1.10000,0.90000,1.10000,0.90000
 70192,'ESTREMOZ    ', 150.0000,1,   6,  12,   2,1.09269, -46.9092,1.10000,0.90000,1.10000,0.90000
 70201,'ZEZERE      ', 220.0000,1,   6,   7,   2,1.11792, -41.0297,1.10000,0.90000,1.10000,0.90000
 70202,'SACAVEM     ', 220.0000,1,   6,  10,   2,1.10671, -40.7336,1.10000,0.90000,1.10000,0.90000
 70206,'PEREIRO     ', 220.0000,1,   6,   6,   2,1.11754, -41.0060,1.10000,0.90000,1.10000,0.90000
 70207,'POCINHO     ', 220.0000,1,   6,   3,   2,1.14690, -38.1104,1.10000,0.90000,1.10000,0.90000
 70208,'VERMOIM     ', 220.0000,1,   6,   4,   2,1.10626, -38.6385,1.10000,0.90000,1.10000,0.90000
 70210,'V.CHA       ', 220.0000,1,   6,   5,   2,1.12197, -41.2790,1.10000,0.90000,1.10000,0.90000
 70211,'A.MIRA      ', 220.0000,1,   6,  10,   2,1.10531, -40.8271,1.10000,0.90000,1.10000,0.90000
 70212,'ESTARRE     ', 220.0000,1,   6,   4,   2,1.10738, -40.1044,1.10000,0.90000,1.10000,0.90000
 70214,'BATALHA     ', 220.0000,1,   6,   8,   2,1.11349, -40.2730,1.10000,0.90000,1.10000,0.90000
 70216,'R.MAIOR     ', 220.0000,1,   6,   9,   2,1.10841, -39.8030,1.10000,0.90000,1.10000,0.90000
 70218,'CARREGA     ', 220.0000,1,   6,  10,   2,1.10630, -40.0995,1.10000,0.90000,1.10000,0.90000
 70220,'VALDIGE     ', 220.0000,1,   6,   2,   2,1.12038, -37.9334,1.10000,0.90000,1.10000,0.90000
 70223,'MOURISC     ', 220.0000,1,   6,   6,   2,1.11349, -40.4728,1.10000,0.90000,1.10000,0.90000
 70224,'CANELAS     ', 220.0000,1,   6,   4,   2,1.11012, -38.0323,1.10000,0.90000,1.10000,0.90000
 70225,'FANHOES     ', 220.0000,1,   6,  10,   2,1.10806, -40.6040,1.10000,0.90000,1.10000,0.90000
 70226,'ARMAMAR     ', 220.0000,1,   6,   2,   2,1.12464, -38.1235,1.10000,0.90000,1.10000,0.90000
 70228,'MOGOFOR     ', 220.0000,1,   6,   6,   2,1.11857, -39.8368,1.10000,0.90000,1.10000,0.90000
 70230,'POMBAL      ', 220.0000,1,   6,   8,   2,1.11653, -40.2554,1.10000,0.90000,1.10000,0.90000
 70232,'CUSTOIA     ', 220.0000,1,   6,   4,   2,1.10594, -38.7948,1.10000,0.90000,1.10000,0.90000
 70233,'PICOTE      ', 220.0000,1,   6,   3,   2,1.16607, -36.1115,1.10000,0.90000,1.10000,0.90000
 70234,'CARRICH     ', 220.0000,1,   6,  10,   2,1.10607, -40.9983,1.10000,0.90000,1.10000,0.90000
 70235,'TRAJOUC     ', 220.0000,1,   6,  10,   2,1.10502, -41.3779,1.10000,0.90000,1.10000,0.90000
 70237,'RECAREI     ', 220.0000,1,   6,   4,   2,1.11102, -37.8297,1.10000,0.90000,1.10000,0.90000
 70238,'S.RIOS      ', 220.0000,1,   6,  10,   2,1.10535, -41.0678,1.10000,0.90000,1.10000,0.90000
 70246,'TORRAO      ', 220.0000,1,   6,   4,   2,1.11078, -38.6285,1.10000,0.90000,1.10000,0.90000
 70254,'REGUA       ', 220.0000,1,   6,   2,   2,1.12067, -37.8886,1.10000,0.90000,1.10000,0.90000
 70262,'FERRO       ', 220.0000,1,   6,   5,   2,1.11423, -42.1190,1.10000,0.90000,1.10000,0.90000
 70264,'MOGADOU     ', 220.0000,1,   6,   3,   2,1.15810, -36.5116,1.10000,0.90000,1.10000,0.90000
 70265,'SANTARE     ', 220.0000,1,   6,   9,   2,1.11012, -40.7462,1.10000,0.90000,1.10000,0.90000
 70266,'CHAFARI     ', 220.0000,1,   6,   5,   2,1.12647, -40.7692,1.10000,0.90000,1.10000,0.90000
 70268,'CARRAPA     ', 220.0000,1,   6,   4,   2,1.11319, -38.8309,1.10000,0.90000,1.10000,0.90000
 70269,'URRO        ', 220.0000,1,   6,   2,   2,1.11117, -37.8447,1.10000,0.90000,1.10000,0.90000
 70276,'PARAIMO     ', 220.0000,1,   6,   6,   2,1.11838, -39.6847,1.10000,0.90000,1.10000,0.90000
 70278,'BODIOSA     ', 220.0000,1,   6,   5,   2,1.12144, -39.4259,1.10000,0.90000,1.10000,0.90000
 70279,'PENELA      ', 220.0000,1,   6,   6,   2,1.11825, -41.0722,1.10000,0.90000,1.10000,0.90000
 70281,'C.BRANCO    ', 220.0000,1,   6,   7,   2,1.09900, -42.8774,1.10000,0.90000,1.10000,0.90000
 70285,'M.CAVALE    ', 220.0000,1,   6,   3,   2,1.17190, -36.1213,1.10000,0.90000,1.10000,0.90000
 70286,'CARVOEIR    ', 220.0000,1,   6,  10,   2,1.10639, -40.7581,1.10000,0.90000,1.10000,0.90000
 70287,'V.P.AGUI    ', 220.0000,1,   6,   2,   2,1.12048, -37.8901,1.10000,0.90000,1.10000,0.90000
 70289,'LAGOACA     ', 220.0000,1,   6,   3,   2,1.17008, -36.0519,1.10000,0.90000,1.10000,0.90000
 70291,'TÁBUA       ', 220.0000,1,   6,   6,   2,1.11632, -41.1347,1.10000,0.90000,1.10000,0.90000
 70405,'F.ALENT     ', 400.0000,1,   6,  12,   2,1.10163, -36.8374,1.10000,0.90000,1.10000,0.90000
 70411,'A.MIRA      ', 400.0000,1,   6,  10,   2,1.11089, -38.6556,1.10000,0.90000,1.10000,0.90000
 70414,'BATALHA     ', 400.0000,1,   6,   8,   2,1.11612, -38.0984,1.10000,0.90000,1.10000,0.90000
 70416,'R.MAIOR     ', 400.0000,1,   6,   9,   2,1.11712, -38.0601,1.10000,0.90000,1.10000,0.90000
 70417,'PALMELA     ', 400.0000,1,   6,  11,   2,1.11091, -37.5141,1.10000,0.90000,1.10000,0.90000
 70419,'SINES       ', 400.0000,1,   6,  12,   2,1.10103, -34.8505,1.10000,0.90000,1.10000,0.90000
 70422,'RIBADAV     ', 400.0000,1,   6,   1,   2,1.12027, -33.7989,1.10000,0.90000,1.10000,0.90000
 70425,'FANHOES     ', 400.0000,1,   6,  10,   2,1.10845, -38.5069,1.10000,0.90000,1.10000,0.90000
 70437,'RECAREI     ', 400.0000,1,   6,   4,   2,1.11569, -34.9776,1.10000,0.90000,1.10000,0.90000
 70448,'LAVOS       ', 400.0000,1,   6,   6,   2,1.10816, -35.2522,1.10000,0.90000,1.10000,0.90000
 70451,'A.LINDO     ', 400.0000,1,   6,   1,   2,1.12879, -30.2734,1.10000,0.90000,1.10000,0.90000
 70457,'FALAGUE     ', 400.0000,1,   6,  14,   2,1.11385, -38.4895,1.10000,0.90000,1.10000,0.90000
 70460,'PEGO        ', 400.0000,1,   6,  14,   2,1.11422, -37.7536,1.10000,0.90000,1.10000,0.90000
 70474,'RIBATEJO    ', 400.0000,1,   6,  10,   2,1.10681, -37.6224,1.10000,0.90000,1.10000,0.90000
 70476,'PARAIMO     ', 400.0000,1,   6,   6,   2,1.11817, -37.3866,1.10000,0.90000,1.10000,0.90000
 70482,'PEDRALVA    ', 400.0000,1,   6,   1,   2,1.12392, -32.4437,1.10000,0.90000,1.10000,0.90000
 70484,'ALQUEVA     ', 400.0000,1,   6,  12,   2,1.09786, -38.4674,1.10000,0.90000,1.10000,0.90000
 70563,'RUIVAES     ', 130.0000,1,   6,   1,   2,1.07505, -39.3215,1.10000,0.90000,1.10000,0.90000
 70582,'PEDRALVA    ', 130.0000,1,   6,   1,   2,1.07947, -38.3805,1.10000,0.90000,1.10000,0.90000
 70601,'ZEZERE      ',  63.0000,1,   6,   7,   3,1.05411, -42.4584,1.10000,0.90000,1.10000,0.90000
 70602,'SACAVEM     ',  63.0000,1,   6,  10,   3,1.07447, -42.9249,1.10000,0.90000,1.10000,0.90000
 70603,'ERMESIN     ',  63.0000,1,   6,   4,   3,1.08778, -40.9526,1.10000,0.90000,1.10000,0.90000
 70604,'SETUBAL     ',  63.0000,1,   6,  11,   3,1.06415, -40.5968,1.10000,0.90000,1.10000,0.90000
 70605,'F.ALENT     ',  63.0000,1,   6,  12,   3,1.04548, -38.9377,1.10000,0.90000,1.10000,0.90000
 70606,'PEREIRO     ',  63.0000,1,   6,   6,   3,1.07544, -43.0700,1.10000,0.90000,1.10000,0.90000
 70607,'POCINHO     ',  63.0000,1,   6,   3,   3,1.09307, -40.1343,1.10000,0.90000,1.10000,0.90000
 70608,'VERMOIM     ',  63.0000,1,   6,   4,   3,1.09881, -47.5729,1.10000,0.90000,1.10000,0.90000
 70609,'P.ALTO      ',  63.0000,1,   6,  11,   3,1.05792, -40.3347,1.10000,0.90000,1.10000,0.90000
 70610,'V.CHA       ',  63.0000,1,   6,   5,   3,1.08256, -42.6283,1.10000,0.90000,1.10000,0.90000
 70611,'A.MIRA      ',  63.0000,1,   6,  10,   3,1.08094, -41.8390,1.10000,0.90000,1.10000,0.90000
 70612,'ESTARRE     ',  63.0000,1,   6,   4,   3,1.08923, -43.2097,1.10000,0.90000,1.10000,0.90000
 70613,'TUNES       ',  63.0000,1,   6,  13,   3,1.04689, -43.1275,1.10000,0.90000,1.10000,0.90000
 70614,'BATALHA     ',  63.0000,1,   6,   8,   3,1.08270, -42.2230,1.10000,0.90000,1.10000,0.90000
 70615,'F.FERRO     ',  63.0000,1,   6,  11,   3,1.05875, -41.4645,1.10000,0.90000,1.10000,0.90000
 70616,'R.MAIOR     ',  63.0000,1,   6,   9,   3,1.08387, -42.4141,1.10000,0.90000,1.10000,0.90000
 70618,'CARREGA     ',  63.0000,1,   6,  10,   3,1.08093, -42.2732,1.10000,0.90000,1.10000,0.90000
 70619,'SINES       ',  63.0000,1,   6,  12,   3,1.05169, -36.7632,1.10000,0.90000,1.10000,0.90000
 70620,'VALDIGE     ',  63.0000,1,   6,   2,   3,1.08560, -38.4235,1.10000,0.90000,1.10000,0.90000
 70622,'RIBADAV     ',  63.0000,1,   6,   1,   3,1.07904, -39.3240,1.10000,0.90000,1.10000,0.90000
 70623,'MOURISC     ',  63.0000,1,   6,   6,   3,1.08186, -43.0276,1.10000,0.90000,1.10000,0.90000
 70624,'CANELAS     ',  63.0000,1,   6,   4,   3,1.08843, -41.9838,1.10000,0.90000,1.10000,0.90000
 70625,'FANHOES     ',  63.0000,1,   6,  10,   3,1.07244, -40.9184,1.10000,0.90000,1.10000,0.90000
 70627,'GUIMARA     ',  63.0000,1,   6,   1,   3,1.07311, -39.0964,1.10000,0.90000,1.10000,0.90000
 70628,'MOGOFOR     ',  63.0000,1,   6,   6,   3,1.07946, -39.2393,1.10000,0.90000,1.10000,0.90000
 70630,'POMBAL      ',  63.0000,1,   6,   8,   3,1.07576, -38.6891,1.10000,0.90000,1.10000,0.90000
 70631,'V.FRIA      ',  63.0000,1,   6,   1,   3,1.07427, -39.6044,1.10000,0.90000,1.10000,0.90000
 70632,'CUSTOIA     ',  63.0000,1,   6,   4,   3,1.08161, -41.2407,1.10000,0.90000,1.10000,0.90000
 70634,'CARRICH     ',  63.0000,1,   6,  10,   3,1.07943, -42.7721,1.10000,0.90000,1.10000,0.90000
 70635,'TRAJOUC     ',  63.0000,1,   6,  10,   3,1.08409, -45.6035,1.10000,0.90000,1.10000,0.90000
 70637,'RECAREI     ',  63.0000,1,   6,   4,   3,1.08087, -39.7747,1.10000,0.90000,1.10000,0.90000
 70638,'S.RIOS      ',  63.0000,1,   6,  10,   3,1.07567, -43.5858,1.10000,0.90000,1.10000,0.90000
 70639,'EVORA       ',  63.0000,1,   6,  12,   3,1.04913, -41.6639,1.10000,0.90000,1.10000,0.90000
 70640,'TRAFARIA    ',  63.0000,1,   6,  11,   3,1.05964, -41.8865,1.10000,0.90000,1.10000,0.90000
 70643,'PRACANA     ',  63.0000,1,   6,  14,   3,1.07346, -46.2536,1.10000,0.90000,1.10000,0.90000
 70646,'TORRAO      ',  63.0000,1,   6,   4,   3,1.08007, -40.0588,1.10000,0.90000,1.10000,0.90000
 70648,'LAVOS       ',  63.0000,1,   6,   6,   3,1.07959, -37.0443,1.10000,0.90000,1.10000,0.90000
 70655,'CHAVES      ',  63.0000,1,   6,   1,   3,1.07885, -37.9022,1.10000,0.90000,1.10000,0.90000
 70656,'ESTOI       ',  63.0000,1,   6,  13,   3,1.05288, -44.5163,1.10000,0.90000,1.10000,0.90000
 70657,'FALAGUE     ',  63.0000,1,   6,  14,   3,1.07347, -46.2531,1.10000,0.90000,1.10000,0.90000
 70661,'OLEIROS     ',  63.0000,1,   6,   1,   3,1.07638, -40.3661,1.10000,0.90000,1.10000,0.90000
 70662,'FERRO       ',  63.0000,1,   6,   5,   3,1.07262, -43.1508,1.10000,0.90000,1.10000,0.90000
 70664,'MOGADOU     ',  63.0000,1,   6,   3,   3,1.11193, -36.7909,1.10000,0.90000,1.10000,0.90000
 70665,'SANTARE     ',  63.0000,1,   6,   9,   3,1.07219, -42.2334,1.10000,0.90000,1.10000,0.90000
 70666,'CHAFARI     ',  63.0000,1,   6,   5,   3,1.05448, -42.6006,1.10000,0.90000,1.10000,0.90000
 70668,'CARRAPAT    ',  63.0000,1,   6,   4,   3,1.08742, -39.0047,1.10000,0.90000,1.10000,0.90000
 70670,'PRELADA     ',  63.0000,1,   6,   4,   3,1.07576, -50.4733,1.10000,0.90000,1.10000,0.90000
 70676,'PARAIMO     ',  63.0000,1,   6,   6,   3,1.08241, -39.0369,1.10000,0.90000,1.10000,0.90000
 70677,'PORTIMAO    ',  63.0000,1,   6,  13,   3,1.04980, -41.9499,1.10000,0.90000,1.10000,0.90000
 70678,'BODIOSA     ',  63.0000,1,   6,   5,   3,1.08871, -40.8559,1.10000,0.90000,1.10000,0.90000
 70679,'PENELA      ',  63.0000,1,   6,   6,   3,1.07215, -41.5670,1.10000,0.90000,1.10000,0.90000
 70681,'C.BRANCO    ',  63.0000,1,   6,   7,   3,1.07532, -45.4581,1.10000,0.90000,1.10000,0.90000
 70683,'FRADES      ',  63.0000,1,   6,   1,   3,1.07431, -35.9576,1.10000,0.90000,1.10000,0.90000
 70684,'ALQUEVA     ',  63.0000,1,   6,  12,   3,1.03758, -38.9505,1.10000,0.90000,1.10000,0.90000
 70685,'M.CAVALE    ',  63.0000,1,   6,   3,   3,1.11337, -36.2556,1.10000,0.90000,1.10000,0.90000
 70686,'CARVOEIR    ',  63.0000,1,   6,  10,   3,1.07343, -42.2116,1.10000,0.90000,1.10000,0.90000
 70687,'V.P.AGUI    ',  63.0000,1,   6,   2,   3,1.08789, -37.7872,1.10000,0.90000,1.10000,0.90000
 70691,'TABUA       ',  63.0000,1,   6,   6,   3,1.07486, -42.2931,1.10000,0.90000,1.10000,0.90000
 70692,'ESTREMOZ    ',  63.0000,1,   6,  12,   3,1.07659, -48.8389,1.10000,0.90000,1.10000,0.90000
 71020,'V.NOVA      ', 150.0000,1,   6,   1,   2,1.11367, -36.4047,1.10000,0.90000,1.10000,0.90000
 71030,'SALAMON     ', 150.0000,1,   6,   1,   2,1.11329, -36.4740,1.10000,0.90000,1.10000,0.90000
 71040,'CABRIL      ', 150.0000,1,   6,   7,   2,1.10850, -39.5732,1.10000,0.90000,1.10000,0.90000
 71060,'BOUCA       ', 150.0000,1,   6,   7,   2,1.10424, -39.9168,1.10000,0.90000,1.10000,0.90000
 71100,'A.RABAG     ', 150.0000,1,   6,   1,   2,1.10919, -36.6384,1.10000,0.90000,1.10000,0.90000
 71110,'TABUACO     ', 150.0000,1,   6,   2,   2,1.09641, -34.6190,1.10000,0.90000,1.10000,0.90000
 71130,'V.FURNA     ', 150.0000,1,   6,   1,   2,1.11253, -37.0472,1.10000,0.90000,1.10000,0.90000
 71137,'PMFF4/SX    ', 150.0000,1,   6,  11,   2,1.08330, -39.8473,1.10000,0.90000,1.10000,0.90000
 71150,'FRATEL      ', 150.0000,1,   6,  14,   2,1.09327, -45.4224,1.10000,0.90000,1.10000,0.90000
 71270,'C.FRADES    ', 150.0000,1,   6,   1,   2,1.11417, -36.4467,1.10000,0.90000,1.10000,0.90000
 71277,'CDRA2/GR    ', 150.0000,1,   6,   1,   2,1.11320, -37.5304,1.10000,0.90000,1.10000,0.90000
 71557,'ARFRD       ', 150.0000,1,   6,   1,   2,1.10919, -36.6384,1.10000,0.90000,1.10000,0.90000
 71771,'C.SINES1    ', 150.0000,1,   6,  12,   2,1.08888, -32.6441,1.10000,0.90000,1.10000,0.90000
 71826,'FRDRA/PD    ', 150.0000,1,   6,   1,   2,1.11220, -37.3181,1.10000,0.90000,1.10000,0.90000
 71837,'CDRA/FRD    ', 150.0000,1,   6,   1,   2,1.11283, -37.0407,1.10000,0.90000,1.10000,0.90000
 71846,'PMMP/PE     ', 150.0000,1,   6,  11,   2,1.08534, -38.2626,1.10000,0.90000,1.10000,0.90000
 71847,'PMER/PE     ', 150.0000,1,   6,  11,   2,1.08601, -39.2210,1.10000,0.90000,1.10000,0.90000
 71867,'PAQG2       ', 150.0000,1,   6,  11,   2,1.08201, -39.6392,1.10000,0.90000,1.10000,0.90000
 71911,'FRCC1/RD    ', 150.0000,1,   6,   7,   2,1.09256, -45.0653,1.10000,0.90000,1.10000,0.90000
 71912,'FRCC2/RD    ', 150.0000,1,   6,   7,   2,1.09255, -45.0551,1.10000,0.90000,1.10000,0.90000
 71987,'VMED3/MA    ', 150.0000,1,   6,   4,   2,1.11576, -38.3698,1.10000,0.90000,1.10000,0.90000
 72011,'C.BODE1     ', 220.0000,1,   6,   7,   2,1.11791, -41.0297,1.10000,0.90000,1.10000,0.90000
 72012,'C.BODE2     ', 220.0000,1,   6,   7,   2,1.11786, -41.0207,1.10000,0.90000,1.10000,0.90000
 72013,'C.BODE3     ', 220.0000,1,   6,   7,   2,1.11791, -41.0297,1.10000,0.90000,1.10000,0.90000
 72027,'RRCT/MAA    ', 220.0000,1,   6,   4,   2,1.10694, -38.5464,1.10000,0.90000,1.10000,0.90000
 72080,'MIRANDA     ', 220.0000,1,   6,   3,   2,1.16657, -35.9672,1.10000,0.90000,1.10000,0.90000
 72090,'BEMPOST     ', 220.0000,1,   6,   3,   2,1.17042, -35.9812,1.10000,0.90000,1.10000,0.90000
 72127,'TGCN/EJ     ', 220.0000,1,   6,   4,   2,1.10972, -37.9209,1.10000,0.90000,1.10000,0.90000
 72160,'VALEIRA     ', 220.0000,1,   6,   2,   2,1.13114, -37.5530,1.10000,0.90000,1.10000,0.90000
 72170,'AGUIEIR     ', 220.0000,1,   6,   6,   2,1.11778, -41.0201,1.10000,0.90000,1.10000,0.90000
 72190,'C.POCIN     ', 220.0000,1,   6,   3,   2,1.14682, -38.0804,1.10000,0.90000,1.10000,0.90000
 72267,'BAVG1/AM    ', 220.0000,1,   6,   2,   2,1.12460, -38.1719,1.10000,0.90000,1.10000,0.90000
 72287,'PIPR/MR     ', 220.0000,1,   6,   6,   2,1.11850, -39.8498,1.10000,0.90000,1.10000,0.90000
 72307,'PRRM2/PB    ', 220.0000,1,   6,   8,   2,1.11649, -40.3039,1.10000,0.90000,1.10000,0.90000
 72346,'FNAM2/CH    ', 220.0000,1,   6,  10,   2,1.10641, -40.9352,1.10000,0.90000,1.10000,0.90000
 72347,'FNAM3/CH    ', 220.0000,1,   6,  10,   2,1.10620, -40.9007,1.10000,0.90000,1.10000,0.90000
 72357,'AMCH/TJ     ', 220.0000,1,   6,  10,   2,1.10533, -40.8534,1.10000,0.90000,1.10000,0.90000
 72596,'RRVM2/ED    ', 220.0000,1,   6,   4,   2,1.10848, -38.2649,1.10000,0.90000,1.10000,0.90000
 72597,'VGVM4/ED    ', 220.0000,1,   6,   4,   2,1.10827, -38.5555,1.10000,0.90000,1.10000,0.90000
 72627,'PNCFE/RA    ', 220.0000,1,   6,   5,   2,1.11463, -42.1228,1.10000,0.90000,1.10000,0.90000
 72671,'PSPV1       ', 220.0000,1,   6,  10,   2,1.10677, -40.7309,1.10000,0.90000,1.10000,0.90000
 72672,'PSPV2       ', 220.0000,1,   6,  10,   2,1.10676, -40.7227,1.10000,0.90000,1.10000,0.90000
...
0 / END OF BUS DATA, BEGIN LOAD DATA
 11015,'1 ',1,   1,  99,  -470.000,   -59.300,     0.000,     0.000,     0.000,     0.000, 111,1,0
 11016,'1 ',1,   1,  99,  -470.400,   -59.100,     0.000,     0.000,     0.000,     0.000, 111,1,0
 14030,'1 ',1,   1,  99,   194.300,     0.000,     0.000,     0.000,     0.000,     0.000, 116,1,0
 15013,'1 ',1,   1,  99,   338.200,   -10.200,     0.000,     0.000,     0.000,     0.000, 111,1,0
 22010,'1 ',1,   1,  99,   -58.000,   -51.400,     0.000,     0.000,     0.000,     0.000, 134,1,0
 22011,'1 ',1,   1,  99,    26.800,   -49.700,     0.000,     0.000,     0.000,     0.000, 134,1,0
 22195,'1 ',1,   1,  99,   -74.800,   -41.000,     0.000,     0.000,     0.000,     0.000, 112,1,0
 70171,'1 ',1,   6,  12,     1.539,     0.154,     0.000,     0.000,     0.000,     0.000,   3,1,0
 70172,'1 ',1,   6,  12,     1.924,     0.077,     0.000,     0.000,     0.000,     0.000,   3,1,0
 70269,'1 ',1,   6,   2,     1.924,     0.000,     0.000,     0.000,     0.000,     0.000,   3,1,0
 70563,'1 ',1,   6,   1,    69.231,    11.858,     0.000,     0.000,     0.000,     0.000,   3,1,0
 70582,'1 ',1,   6,   1,    13.226,     2.736,     0.000,     0.000,     0.000,     0.000,   2,1,0
 70601,'1 ',1,   6,   7,   169.657,    26.087,     0.000,     0.000,     0.000,     0.000,   3,1,0
 70602,'1 ',1,   6,  10,   158.621,    17.604,     0.000,     0.000,     0.000,     0.000,   3,1,0
 70603,'1 ',1,   6,   4,   165.279,    30.465,     0.000,     0.000,     0.000,     0.000,   3,1,0
 70604,'1 ',1,   6,  11,   246.551,    41.411,     0.000,     0.000,     0.000,     0.000,   3,1,0
 70605,'1 ',1,   6,  12,    51.627,     8.665,     0.000,     0.000,     0.000,     0.000,   3,1,0
 70606,'1 ',1,   6,   6,   152.600,    21.982,     0.000,     0.000,     0.000,     0.000,   3,1,0
 70607,'1 ',1,   6,   3,    55.640,    12.587,     0.000,     0.000,     0.000,     0.000,   3,1,0
 70608,'1 ',1,   6,   4,   360.659,    82.913,     0.000,     0.000,     0.000,     0.000,   3,1,0
 70609,'1 ',1,   6,  11,    39.313,     3.649,     0.000,     0.000,     0.000,     0.000,   3,1,0
 70610,'1 ',1,   6,   5,   105.534,    18.699,     0.000,     0.000,     0.000,     0.000,   3,1,0
 70611,'1 ',1,   6,  10,   169.475,    26.361,     0.000,     0.000,     0.000,     0.000,   3,1,0
 70612,'1 ',1,   6,   4,   290.333,    67.772,     0.000,     0.000,     0.000,     0.000,   3,1,0
 70613,'1 ',1,   6,  13,    74.248,     8.027,     0.000,     0.000,     0.000,     0.000,   3,1,0
 70614,'1 ',1,   6,   8,   184.343,    47.431,     0.000,     0.000,     0.000,     0.000,   3,1,0
 70615,'1 ',1,   6,  11,   116.571,    18.972,     0.000,     0.000,     0.000,     0.000,   3,1,0
 70616,'1 ',1,   6,   9,   111.646,    18.790,     0.000,     0.000,     0.000,     0.000,   3,1,0
 70618,'1 ',1,   6,  10,   109.183,    19.793,     0.000,     0.000,     0.000,     0.000,   3,1,0
 70619,'1 ',1,   6,  12,    73.701,    10.034,     0.000,     0.000,     0.000,     0.000,   3,1,0
 70620,'1 ',1,   6,   2,    78.991,    21.709,     0.000,     0.000,     0.000,     0.000,   3,1,0
 70622,'1 ',1,   6,   1,   314.140,    82.366,     0.000,     0.000,     0.000,     0.000,   3,1,0
 70623,'1 ',1,   6,   6,   196.657,    35.665,     0.000,     0.000,     0.000,     0.000,   3,1,0
 70624,'1 ',1,   6,   4,   233.598,    53.725,     0.000,     0.000,     0.000,     0.000,   3,1,0
 70625,'1 ',1,   6,  10,   193.738,    41.046,     0.000,     0.000,     0.000,     0.000,   3,1,0
 70627,'1 ',1,   6,   1,    54.181,    14.229,     0.000,     0.000,     0.000,     0.000,   3,1,0
 70628,'1 ',1,   6,   6,     8.848,     7.115,     0.000,     0.000,     0.000,     0.000,   3,1,0
 70630,'1 ',1,   6,   8,    12.314,     2.736,     0.000,     0.000,     0.000,     0.000,   3,1,0
 70631,'1 ',1,   6,   1,   152.144,    34.570,     0.000,     0.000,     0.000,     0.000,   3,1,0
 70632,'1 ',1,   6,   4,   160.810,    34.935,     0.000,     0.000,     0.000,     0.000,   3,1,0
 70634,'1 ',1,   6,  10,   159.259,    23.259,     0.000,     0.000,     0.000,     0.000,   3,1,0
 70635,'1 ',1,   6,  10,   288.965,    53.816,     0.000,     0.000,     0.000,     0.000,   3,1,0
 70637,'1 ',1,   6,   4,    82.640,    12.770,     0.000,     0.000,     0.000,     0.000,   3,1,0
 70638,'1 ',1,   6,  10,   173.397,    26.726,     0.000,     0.000,     0.000,     0.000,   3,1,0
 70639,'1 ',1,   6,  12,    50.624,     9.121,     0.000,     0.000,     0.000,     0.000,   3,1,0
 70640,'1 ',1,   6,  11,    76.072,    10.216,     0.000,     0.000,     0.000,     0.000,   3,1,0
 70643,'1 ',1,   6,   7,     0.000,     0.000,     0.000,     0.000,     0.000,     0.000,   3,1,0
 70646,'1 ',1,   6,   4,    63.029,    12.131,     0.000,     0.000,     0.000,     0.000,   3,1,0
 70648,'1 ',1,   6,   6,   203.863,    45.698,     0.000,     0.000,     0.000,     0.000,   3,1,0
 70655,'1 ',1,   6,   1,    30.830,    24.628,     0.000,     0.000,     0.000,     0.000,   3,1,0
 70656,'1 ',1,   6,  13,   118.943,     8.483,     0.000,     0.000,     0.000,     0.000,   3,1,0
 70657,'1 ',1,   6,   7,    37.671,     4.378,     0.000,     0.000,     0.000,     0.000,   3,1,0
 70661,'1 ',1,   6,   1,   149.226,    47.522,     0.000,     0.000,     0.000,     0.000,   3,1,0
 70662,'1 ',1,   6,   5,    46.884,     4.287,     0.000,     0.000,     0.000,     0.000,   3,1,0
 70664,'1 ',1,   6,   3,     6.659,     1.551,     0.000,     0.000,     0.000,     0.000,   3,1,0
 70665,'1 ',1,   6,   9,    64.306,     9.213,     0.000,     0.000,     0.000,     0.000,   3,1,0
 70666,'1 ',1,   6,   5,    53.086,    10.398,     0.000,     0.000,     0.000,     0.000,   3,1,0
 70668,'1 ',1,   6,   4,    18.608,     4.378,     0.000,     0.000,     0.000,     0.000,   3,1,0
 70670,'1 ',1,   6,   4,    90.472,    20.849,     0.000,     0.000,     0.000,     0.000,   3,1,0
 70676,'1 ',1,   6,   6,    51.627,    12.314,     0.000,     0.000,     0.000,     0.000,   3,1,0
 70677,'1 ',1,   6,  13,    53.816,     1.186,     0.000,     0.000,     0.000,     0.000,   3,1,0
 70678,'1 ',1,   6,   5,    81.727,    10.581,     0.000,     0.000,     0.000,     0.000,   3,1,0
 70679,'1 ',1,   6,   6,    17.057,     5.108,     0.000,     0.000,     0.000,     0.000,   3,1,0
 70681,'1 ',1,   6,   7,    34.661,     3.466,     0.000,     0.000,     0.000,     0.000,   2,1,0
 70683,'1 ',1,   6,   1,     0.091,     0.000,     0.000,     0.000,     0.000,     0.000,   3,1,0
 70684,'1 ',1,   6,  12,    12.131,     2.189,     0.000,     0.000,     0.000,     0.000,   3,1,0
 70686,'1 ',1,   6,  10,    33.931,     4.743,     0.000,     0.000,     0.000,     0.000,   3,1,0
 70687,'1 ',1,   6,   2,    17.331,     4.013,     0.000,     0.000,     0.000,     0.000,   3,1,0
 70691,'1 ',1,   6,   6,    26.388,     4.693,     0.000,     0.000,     0.000,     0.000,   3,1,0
 70692,'1 ',1,   6,  12,    24.172,     0.912,     0.000,     0.000,     0.000,     0.000,   3,1,0
 75102,'1 ',1,   6,   4,     0.000,     0.000,     0.000,     0.000,     0.000,     0.000,   2,1,0
 75103,'1 ',1,   6,  12,    23.080,     7.924,     0.000,     0.000,     0.000,     0.000,   3,1,0
 75104,'1 ',1,   6,  11,    15.387,     3.308,     0.000,     0.000,     0.000,     0.000,   3,1,0
 75107,'1 ',1,   6,  11,     2.693,     0.154,     0.000,     0.000,     0.000,     0.000,   3,1,0
 75109,'1 ',1,   6,  11,     5.000,     1.539,     0.000,     0.000,     0.000,     0.000,   3,1,0
 75110,'1 ',1,   6,  11,     1.539,     0.154,     0.000,     0.000,     0.000,     0.000,   3,1,0
 75115,'1 ',1,   6,   7,     1.154,     0.000,     0.000,     0.000,     0.000,     0.000,   3,1,0
 75116,'1 ',1,   6,  12,     1.924,     0.077,     0.000,     0.000,     0.000,     0.000,   3,1,0
 75117,'1 ',1,   6,  11,     5.385,     0.385,     0.000,     0.000,     0.000,     0.000,   2,1,0
 75202,'1 ',1,   6,   4,    69.238,    11.848,     0.000,     0.000,     0.000,     0.000,   3,1,0
 75205,'1 ',1,   6,   5,     1.924,     0.000,     0.000,     0.000,     0.000,     0.000,   3,1,0
 75206,'1 ',1,   6,   6,     1.539,     0.000,     0.000,     0.000,     0.000,     0.000,   3,1,0
 75208,'1 ',1,   6,   5,     1.154,     0.000,     0.000,     0.000,     0.000,     0.000,   3,1,0
 75212,'1 ',1,   6,  11,    84.625,    19.695,     0.000,     0.000,     0.000,     0.000,   3,1,0
 75218,'1 ',1,   6,   7,     1.154,     0.000,     0.000,     0.000,     0.000,     0.000,   2,1,0
0 / END OF LOAD DATA, BEGIN FIXED SHUNT DATA
 70281,'1 ',1,     0.000,   -70.000
 70291,'1 ',1,     0.000,   -70.000
 70601,'1 ',1,     0.000,    50.000
 70603,'1 ',1,     0.000,    50.000
 70604,'1 ',1,     0.000,    50.000
 70606,'1 ',1,     0.000,    30.000
 70608,'1 ',1,     0.000,    80.000
 70610,'1 ',1,     0.000,    30.000
 70611,'1 ',1,     0.000,    50.000
 70612,'1 ',1,     0.000,    40.000
 70613,'1 ',1,     0.000,    30.000
 70614,'1 ',1,     0.000,    50.000
 70615,'1 ',1,     0.000,    50.000
 70616,'1 ',1,     0.000,    50.000
 70622,'1 ',1,     0.000,    80.000
 70623,'1 ',1,     0.000,    40.000
 70624,'1 ',1,     0.000,    60.000
 70625,'1 ',1,     0.000,    40.000
 70631,'1 ',1,     0.000,    30.000
 70632,'1 ',1,     0.000,    30.000
 70634,'1 ',1,     0.000,    50.000
 70635,'1 ',1,     0.000,    70.000
 70639,'1 ',1,     0.000,    30.000
 70661,'1 ',1,     0.000,    50.000
0 / END OF FIXED SHUNT DATA, BEGIN GENERATOR DATA
 75157,'C ',    78.300,     0.000,     0.000,     0.000,1.00000,     0,   223.000, 0.00000E+0, 2.10000E-1, 0.00000E+0, 0.00000E+0,1.00000,1,  100.0,   202.800, -9999.000,   8,1.0000
 77018,'C ',    20.300,     7.000,     7.000,     7.000,1.00000,     0,    54.000, 0.00000E+0, 2.10000E-1, 0.00000E+0, 0.00000E+0,1.00000,1,  100.0,    48.700, -9999.000,   8,1.0000
 77019,'O ',    17.800,     2.700,     2.700,     2.700,1.00000,     0,    38.500, 0.00000E+0, 2.10000E-1, 0.00000E+0, 0.00000E+0,1.00000,1,  100.0,    38.500, -9999.000,   9,1.0000
 77028,'C ',    15.600,     2.300,     2.300,     2.300,1.00000,     0,    33.000, 0.00000E+0, 2.10000E-1, 0.00000E+0, 0.00000E+0,1.00000,1,  100.0,    29.900, -9999.000,   8,1.0000
 77038,'C ',     2.500,     0.500,     0.500,     0.500,1.00000,     0,     4.000, 0.00000E+0, 2.10000E-1, 0.00000E+0, 0.00000E+0,1.00000,1,  100.0,     3.600, -9999.000,   8,1.0000
 77048,'C ',   128.400,    17.900,    17.900,    17.900,1.00000,     0,   212.000, 0.00000E+0, 2.10000E-1, 0.00000E+0, 0.00000E+0,1.00000,1,  100.0,   193.000, -9999.000,   8,1.0000
 77066,'H ',     0.500,     3.700,     3.700,     3.700,1.00000,     0,    14.000, 0.00000E+0, 2.10000E-1, 0.00000E+0, 0.00000E+0,1.00000,1,  100.0,    13.000, -9999.000,   6,1.0000
 77068,'C ',     1.700,     0.800,     0.800,     0.800,1.00000,     0,     7.000, 0.00000E+0, 2.10000E-1, 0.00000E+0, 0.00000E+0,1.00000,1,  100.0,     6.100, -9999.000,   8,1.0000
 77069,'O ',     8.900,     1.900,     1.900,     1.900,1.00000,     0,    26.900, 0.00000E+0, 2.10000E-1, 0.00000E+0, 0.00000E+0,1.00000,1,  100.0,    26.900, -9999.000,   9,1.0000
 77076,'H ',     0.400,     0.900,     0.900,     0.900,1.00000,     0,    44.000, 0.00000E+0, 2.10000E-1, 0.00000E+0, 0.00000E+0,1.00000,1,  100.0,    40.000, -9999.000,   6,1.0000
 77088,'C ',    16.800,     4.000,     4.000,     4.000,1.00000,     0,    58.000, 0.00000E+0, 2.10000E-1, 0.00000E+0, 0.00000E+0,1.00000,1,  100.0,    53.000, -9999.000,   8,1.0000
 77089,'O ',    22.200,     4.100,     4.100,     4.100,1.00000,     0,    58.200, 0.00000E+0, 2.10000E-1, 0.00000E+0, 0.00000E+0,1.00000,1,  100.0,    58.200, -9999.000,   9,1.0000
 77098,'C ',     5.200,     1.100,     1.100,     1.100,1.00000,     0,    15.000, 0.00000E+0, 2.10000E-1, 0.00000E+0, 0.00000E+0,1.00000,1,  100.0,    13.900, -9999.000,   8,1.0000
 77106,'H ',    12.800,     9.200,     9.200,     9.200,1.00000,     0,    30.000, 0.00000E+0, 2.10000E-1, 0.00000E+0, 0.00000E+0,1.00000,1,  100.0,    27.000, -9999.000,   6,1.0000
 77108,'C ',     2.100,     3.600,     3.600,     3.600,1.00000,     0,    44.000, 0.00000E+0, 2.10000E-1, 0.00000E+0, 0.00000E+0,1.00000,1,  100.0,    40.000, -9999.000,   8,1.0000
 77126,'H ',     8.300,     1.200,     1.200,     1.200,1.00000,     0,    13.000, 0.00000E+0, 2.10000E-1, 0.00000E+0, 0.00000E+0,1.00000,1,  100.0,    11.800, -9999.000,   6,1.0000
 77128,'C ',    10.000,     6.200,     6.200,     6.200,1.00000,     0,    60.000, 0.00000E+0, 2.10000E-1, 0.00000E+0, 0.00000E+0,1.00000,1,  100.0,    54.900, -9999.000,   8,1.0000
 77148,'C ',     1.000,     1.000,     1.000,     1.000,1.00000,     0,    10.000, 0.00000E+0, 2.10000E-1, 0.00000E+0, 0.00000E+0,1.00000,1,  100.0,     9.400, -9999.000,   8,1.0000
 77149,'O ',     0.600,     0.500,     0.500,     0.500,1.00000,     0,     7.800, 0.00000E+0, 2.10000E-1, 0.00000E+0, 0.00000E+0,1.00000,1,  100.0,     7.800, -9999.000,   9,1.0000
 77198,'C ',     0.400,     2.900,     2.900,     2.900,1.00000,     0,    86.000, 0.00000E+0, 2.10000E-1, 0.00000E+0, 0.00000E+0,1.00000,1,  100.0,    78.000, -9999.000,   8,1.0000
 77206,'H ',    20.500,     6.700,     6.700,     6.700,1.00000,     0,    74.000, 0.00000E+0, 2.10000E-1, 0.00000E+0, 0.00000E+0,1.00000,1,  100.0,    67.500, -9999.000,   6,1.0000
 77226,'H ',    19.800,     4.200,     4.200,     4.200,1.00000,     0,    53.000, 0.00000E+0, 2.10000E-1, 0.00000E+0, 0.00000E+0,1.00000,1,  100.0,    48.000, -9999.000,   6,1.0000
 77228,'C ',    66.900,    15.800,    15.800,    15.800,1.00000,     0,   184.000, 0.00000E+0, 2.10000E-1, 0.00000E+0, 0.00000E+0,1.00000,1,  100.0,   166.900, -9999.000,   8,1.0000
 77236,'H ',     5.000,     2.300,     2.300,     2.300,1.00000,     0,    20.000, 0.00000E+0, 2.10000E-1, 0.00000E+0, 0.00000E+0,1.00000,1,  100.0,    18.000, -9999.000,   6,1.0000
 77238,'C ',    29.500,     5.900,     5.900,     5.900,1.00000,     0,    65.000, 0.00000E+0, 2.10000E-1, 0.00000E+0, 0.00000E+0,1.00000,1,  100.0,    58.800, -9999.000,   8,1.0000
 77239,'O ',     0.600,     1.400,     1.400,     1.400,1.00000,     0,    19.900, 0.00000E+0, 2.10000E-1, 0.00000E+0, 0.00000E+0,1.00000,1,  100.0,    19.900, -9999.000,   9,1.0000
 77258,'C ',     7.600,     6.100,     6.100,     6.100,1.00000,     0,    76.000, 0.00000E+0, 2.10000E-1, 0.00000E+0, 0.00000E+0,1.00000,1,  100.0,    69.500, -9999.000,   8,1.0000
 77259,'O ',    30.900,     4.900,     4.900,     4.900,1.00000,     0,    70.300, 0.00000E+0, 2.10000E-1, 0.00000E+0, 0.00000E+0,1.00000,1,  100.0,    70.300, -9999.000,   9,1.0000
 77278,'C ',    27.500,     0.900,     0.900,     0.900,1.00000,     0,    38.000, 0.00000E+0, 2.10000E-1, 0.00000E+0, 0.00000E+0,1.00000,1,  100.0,    34.500, -9999.000,   8,1.0000
 77308,'C ',    19.000,     3.700,     3.700,     3.700,1.00000,     0,    32.000, 0.00000E+0, 2.10000E-1, 0.00000E+0, 0.00000E+0,1.00000,1,  100.0,    29.500, -9999.000,   8,1.0000
 77316,'H ',    10.600,     3.900,     3.900,     3.900,1.00000,     0,    18.000, 0.00000E+0, 2.10000E-1, 0.00000E+0, 0.00000E+0,1.00000,1,  100.0,    16.300, -9999.000,   6,1.0000
 77318,'C ',    51.900,    11.200,    11.200,    11.200,1.00000,     0,    92.000, 0.00000E+0, 2.10000E-1, 0.00000E+0, 0.00000E+0,1.00000,1,  100.0,    83.800, -9999.000,   8,1.0000
 77328,'C ',    11.400,     7.400,     7.400,     7.400,1.00000,     0,   124.000, 0.00000E+0, 2.10000E-1, 0.00000E+0, 0.00000E+0,1.00000,1,  100.0,   112.600, -9999.000,   8,1.0000
 77408,'C ',     7.700,     1.100,     1.100,     1.100,1.00000,     0,    13.000, 0.00000E+0, 2.10000E-1, 0.00000E+0, 0.00000E+0,1.00000,1,  100.0,    12.200, -9999.000,   8,1.0000
 77488,'C ',   139.900,    26.000,    26.000,    26.000,1.00000,     0,   280.000, 0.00000E+0, 2.10000E-1, 0.00000E+0, 0.00000E+0,1.00000,1,  100.0,   254.300, -9999.000,   8,1.0000
 77489,'O ',    12.200,     2.500,     2.500,     2.500,1.00000,     0,    35.200, 0.00000E+0, 2.10000E-1, 0.00000E+0, 0.00000E+0,1.00000,1,  100.0,    35.200, -9999.000,   9,1.0000
 77579,'O ',    15.700,     2.200,     2.200,     2.200,1.00000,     0,    31.500, 0.00000E+0, 2.10000E-1, 0.00000E+0, 0.00000E+0,1.00000,1,  100.0,    31.500, -9999.000,   9,1.0000
 77616,'H ',     5.400,     1.000,     1.000,     1.000,1.00000,     0,    11.000, 0.00000E+0, 2.10000E-1, 0.00000E+0, 0.00000E+0,1.00000,1,  100.0,     9.600, -9999.000,   6,1.0000
 77618,'C ',    16.000,     2.600,     2.600,     2.600,1.00000,     0,    32.000, 0.00000E+0, 2.10000E-1, 0.00000E+0, 0.00000E+0,1.00000,1,  100.0,    28.900, -9999.000,   8,1.0000
 77626,'H ',     4.500,     5.100,     5.100,     5.100,1.00000,     0,    22.000, 0.00000E+0, 2.10000E-1, 0.00000E+0, 0.00000E+0,1.00000,1,  100.0,    20.000, -9999.000,   6,1.0000
 77666,'H ',     4.500,     2.300,     2.300,     2.300,1.00000,     0,    25.000, 0.00000E+0, 2.10000E-1, 0.00000E+0, 0.00000E+0,1.00000,1,  100.0,    23.100, -9999.000,   6,1.0000
 77686,'H ',     4.700,     0.900,     0.900,     0.900,1.00000,     0,    10.000, 0.00000E+0, 2.10000E-1, 0.00000E+0, 0.00000E+0,1.00000,1,  100.0,     8.700, -9999.000,   6,1.0000
 77786,'H ',    19.700,     3.900,     3.900,     3.900,1.00000,     0,    43.000, 0.00000E+0, 2.10000E-1, 0.00000E+0, 0.00000E+0,1.00000,1,  100.0,    39.200, -9999.000,   6,1.0000
 77846,'H ',     2.000,     1.200,     1.200,     1.200,1.00000,     0,    13.000, 0.00000E+0, 2.10000E-1, 0.00000E+0, 0.00000E+0,1.00000,1,  100.0,    11.800, -9999.000,   6,1.0000
 77868,'C ',     3.700,     1.400,     1.400,     1.400,1.00000,     0,    16.000, 0.00000E+0, 2.10000E-1, 0.00000E+0, 0.00000E+0,1.00000,1,  100.0,    14.600, -9999.000,   8,1.0000
 77936,'H ',    11.800,     3.900,     3.900,     3.900,1.00000,     0,    43.000, 0.00000E+0, 2.10000E-1, 0.00000E+0, 0.00000E+0,1.00000,1,  100.0,    39.000, -9999.000,   6,1.0000
 78012,'2 ',    27.000,   -16.000,    27.000,   -16.000,1.04000,     0,    57.400, 5.00000E-3, 2.90000E-1, 0.00000E+0, 0.00000E+0,0.00000,1,   33.3,    53.000,    25.000,   1,1.0000
 78024,'4 ',    51.500,    -0.580,    21.000,   -20.000,1.04000,     0,    60.000, 2.10000E-3, 1.60000E-1, 0.00000E+0, 0.00000E+0,0.00000,1,  100.0,    54.000,    20.000,   1,1.0000
 78031,'1 ',    19.800,    -1.478,    14.000,    -5.000,1.04000,     0,    25.000, 3.00000E-3, 2.10000E-1, 0.00000E+0, 0.00000E+0,0.00000,1,   50.0,    21.000,    11.000,   1,1.0000
 78032,'2 ',    20.500,    -1.446,    14.000,    -5.000,1.04000,     0,    25.000, 3.00000E-3, 2.10000E-1, 0.00000E+0, 0.00000E+0,0.00000,1,   50.0,    21.000,    11.000,   1,1.0000
 78042,'2 ',    41.200,    16.552,    30.000,   -15.000,1.04000,     0,    61.000, 5.00000E-3, 3.10000E-1, 0.00000E+0, 0.00000E+0,0.00000,1,   50.0,    54.000,    25.000,   1,1.0000
 78051,'1 ',    29.800,    -7.269,    10.000,   -14.800,1.04000,     0,    34.000, 2.70000E-3, 2.25000E-1, 0.00000E+0, 0.00000E+0,0.00000,1,   50.0,    35.000,    20.000,   1,1.0000
 78052,'2 ',    30.200,    -7.258,    10.000,   -14.800,1.04000,     0,    34.000, 2.70000E-3, 2.25000E-1, 0.00000E+0, 0.00000E+0,0.00000,1,   50.0,    35.000,    20.000,   1,1.0000
 78062,'2 ',    11.800,     7.533,    13.000,   -12.000,1.04000,     0,    28.000, 5.00000E-3, 1.98000E-1, 0.00000E+0, 0.00000E+0,0.00000,1,   50.0,    25.000,    10.000,   1,1.0000
 78072,'2 ',    37.900,    -9.738,    21.000,   -28.000,1.04000,     0,    72.000, 4.30000E-3, 1.62000E-1, 0.00000E+0, 0.00000E+0,0.00000,1,   33.3,    65.000,    35.000,   1,1.0000
 78081,'1 ',    53.200,     5.849,    24.000,   -34.000,1.04800,     0,    60.000, 5.00000E-3, 1.80000E-1, 0.00000E+0, 0.00000E+0,0.00000,1,   80.3,    60.000,    35.000,   1,1.0000
 78093,'3 ',    64.900,   -23.762,    25.000,   -27.000,1.04000,     0,    78.000, 4.60000E-3, 2.00000E-1, 0.00000E+0, 0.00000E+0,0.00000,1,   33.3,    80.000,    50.000,   1,1.0000
 78111,'1 ',    27.900,    -8.000,    24.000,    -8.000,1.04000,     0,    40.000, 3.40000E-3, 2.64000E-1, 0.00000E+0, 0.00000E+0,0.00000,1,   50.0,    29.000,    15.000,   1,1.0000
 78112,'2 ',    28.200,    -8.000,    24.000,    -8.000,1.04000,     0,    40.000, 3.40000E-3, 2.64000E-1, 0.00000E+0, 0.00000E+0,0.00000,1,   50.0,    29.000,    15.000,   1,1.0000
 78122,'2 ',    36.400,   -17.901,    27.000,   -20.000,1.04000,     0,    67.000, 5.20000E-3, 1.82000E-1, 0.00000E+0, 0.00000E+0,0.00000,1,   33.3,    70.000,    30.000,   1,1.0000
 78123,'3 ',    40.100,   -18.000,    27.000,   -20.000,1.04000,     0,    67.000, 5.20000E-3, 1.82000E-1, 0.00000E+0, 0.00000E+0,0.00000,1,   33.3,    70.000,    30.000,   1,1.0000
 78141,'1 ',    28.200,     7.229,    26.000,   -26.000,1.04500,     0,    58.000, 8.10000E-3, 1.90000E-1, 0.00000E+0, 0.00000E+0,0.00000,1,   33.3,    60.000,    25.000,   1,1.0000
 78143,'3 ',    27.300,     5.034,    26.000,   -26.000,1.04000,     0,    58.000, 8.10000E-3, 1.90000E-1, 0.00000E+0, 0.00000E+0,0.00000,1,   33.3,    60.000,    25.000,   1,1.0000
 78162,'2 ',    70.600,     2.184,    31.000,   -34.000,1.04000,     0,    80.000, 8.10000E-3, 2.10000E-1, 0.00000E+0, 0.00000E+0,0.00000,1,   33.3,    80.000,    30.000,   1,1.0000
 78191,'1 ',    36.200,    -8.451,    10.000,   -10.000,1.04000,     0,    62.000, 5.00000E-3, 2.00000E-1, 0.00000E+0, 0.00000E+0,0.00000,1,   33.3,    62.000,    25.000,   1,1.0000
 78192,'2 ',    35.300,    -8.560,    10.000,   -10.000,1.04000,     0,    62.000, 5.00000E-3, 2.00000E-1, 0.00000E+0, 0.00000E+0,0.00000,1,   33.4,    62.000,    25.000,   1,1.0000
 78201,'1 ',    27.400,    10.000,    10.000,   -15.000,1.04000,     0,    36.100, 6.00000E-3, 2.90000E-1, 0.00000E+0, 0.00000E+0,0.00000,1,   33.3,    39.000,    20.000,   1,1.0000
 78203,'3 ',    28.000,    10.000,    10.000,   -15.000,1.04000,     0,    36.100, 6.00000E-3, 2.90000E-1, 0.00000E+0, 0.00000E+0,0.00000,1,   33.3,    39.000,    20.000,   1,1.0000
 78222,'2 ',   281.200,  -100.000,   150.000,  -100.000,1.04000,     0,   350.000, 5.00000E-3, 2.50000E-1, 0.00000E+0, 0.00000E+0,0.00000,1,   50.0,   315.000,   150.000,   1,1.0000
 78231,'1 ',    19.800,    -8.683,    12.000,   -14.000,1.03000,     0,    24.000, 5.00000E-3, 2.50000E-1, 0.00000E+0, 0.00000E+0,0.00000,1,  100.0,    22.000,    10.000,   1,1.0000
 78251,'1 ',     5.300,    -8.417,    15.000,   -10.000,1.03000,     0,    40.000, 5.00000E-3, 1.49000E-1, 0.00000E+0, 0.00000E+0,0.00000,1,  100.0,    40.000,     0.000,   1,1.0000
 78261,'1 ',    88.700,   -46.000,    59.000,   -46.000,1.03600,     0,   137.000, 5.00000E-3, 2.50000E-1, 0.00000E+0, 0.00000E+0,0.00000,1,   50.0,   120.000,    55.000,   1,1.0000
 78271,'1 ',    90.900,    24.647,    44.000,   -46.000,1.04000,     0,   100.000, 5.00000E-3, 2.50000E-1, 0.00000E+0, 0.00000E+0,0.00000,1,  100.0,    98.000,    50.000,   1,1.0000
 78995,'5 ',    12.804,    -3.000,     6.000,    -3.000,1.02000,     0,    20.000, 5.40000E-3, 2.10000E-1, 0.00000E+0, 0.00000E+0,1.00000,1,   31.2,    16.000,    10.000,   1,1.0000
 78996,'6 ',    25.852,    -6.000,    13.000,    -6.000,1.02000,     0,    36.300, 5.40000E-3, 2.10000E-1, 0.00000E+0, 0.00000E+0,1.00000,1,   68.8,    32.300,    10.000,   1,1.0000
 79771,'1 ',   294.800,    23.621,   185.000,   -95.000,1.04500,     0,   353.000, 5.00000E-3, 3.22000E-1, 0.00000E+0, 0.00000E+0,0.00000,1,  100.0,   300.000,   109.000,   1,1.0000
 79772,'2 ',   269.224,   -66.376,   185.000,   -95.000,1.03000,     0,   353.000, 5.00000E-3, 3.22000E-1, 0.00000E+0, 0.00000E+0,0.00000,1,  100.0,   300.000,   109.000,   1,1.0000
 79773,'3 ',   298.800,   -60.819,   185.000,   -95.000,1.03000,     0,   353.000, 5.00000E-3, 3.22000E-1, 0.00000E+0, 0.00000E+0,0.00000,1,  100.0,   300.000,   109.000,   1,1.0000
 79774,'4 ',   297.200,   -60.944,   185.000,   -95.000,1.03000,     0,   353.000, 5.00000E-3, 3.22000E-1, 0.00000E+0, 0.00000E+0,0.00000,1,  100.0,   300.000,   109.000,   1,1.0000
 79781,'1 ',   279.600,   -90.000,   180.000,   -90.000,1.04000,     0,   362.000, 5.00000E-3, 3.35000E-1, 0.00000E+0, 0.00000E+0,0.00000,1,   56.5,   288.000,   101.000,   1,1.0000
 79791,'1 ',   320.400,   -47.432,   150.000,  -124.000,1.04000,     0,   394.000, 5.00000E-3, 1.84000E-1, 0.00000E+0, 0.00000E+0,0.00000,1,   33.3,   330.000,   195.000,   1,1.0000
 79793,'3 ',   318.800,   -47.569,   150.000,  -124.000,1.04000,     0,   394.000, 5.00000E-3, 1.84000E-1, 0.00000E+0, 0.00000E+0,0.00000,1,   33.3,   330.000,   195.000,   1,1.0000
 79801,'1 ',   365.600,   -24.080,   150.000,  -130.000,1.04000,     0,   445.000, 5.00000E-3, 2.34000E-1, 0.00000E+0, 0.00000E+0,0.00000,1,   33.3,   392.000,   235.000,   1,1.0000
 79802,'2 ',   350.400,  -124.355,   150.000,  -130.000,1.04000,     0,   445.000, 5.00000E-3, 2.34000E-1, 0.00000E+0, 0.00000E+0,0.00000,1,  100.0,   392.000,   235.000,   1,1.0000
 79803,'3 ',   364.400,  -123.433,   150.000,  -130.000,1.04000,     0,   445.000, 5.00000E-3, 2.34000E-1, 0.00000E+0, 0.00000E+0,0.00000,1,  100.0,   392.000,   235.000,   1,1.0000
 79812,'2 ',   388.400,  -135.000,   255.000,  -135.000,1.04000,     0,   530.000, 5.00000E-3, 2.45000E-1, 0.00000E+0, 0.00000E+0,0.00000,1,  100.0,   413.000,   200.000,   1,1.0000
920601,'1 ',     2.400,     0.240,     0.240,     0.240,1.00000,     0,   138.000, 0.00000E+0, 9.99900E+3, 0.00000E+0, 0.00000E+0,1.00000,1,  100.0,   125.300,     0.000,   1,1.0000,    ,      ,    ,      ,    ,      ,1, 1.0000
920701,'1 ',     0.300,     0.030,     0.030,     0.030,1.00000,     0,    11.000, 0.00000E+0, 9.99900E+3, 0.00000E+0, 0.00000E+0,1.00000,1,  100.0,    10.300,     0.000,   1,1.0000,    ,      ,    ,      ,    ,      ,1, 1.0000
921101,'1 ',     0.200,     0.020,     0.020,     0.020,1.00000,     0,     7.000, 0.00000E+0, 9.99900E+3, 0.00000E+0, 0.00000E+0,1.00000,1,  100.0,     6.000,     0.000,   1,1.0000,    ,      ,    ,      ,    ,      ,1, 1.0000
921102,'1 ',     0.700,     0.070,     0.070,     0.070,1.00000,     0,    29.000, 0.00000E+0, 9.99900E+3, 0.00000E+0, 0.00000E+0,1.00000,1,  100.0,    26.000,     0.000,   1,1.0000,    ,      ,    ,      ,    ,      ,1, 1.0000
921201,'1 ',     0.300,     0.030,     0.030,     0.030,1.00000,     0,    91.000, 0.00000E+0, 9.99900E+3, 0.00000E+0, 0.00000E+0,1.00000,1,  100.0,    82.300,     0.000,   1,1.0000,    ,      ,    ,      ,    ,      ,1, 1.0000
921301,'1 ',     1.300,     0.130,     0.130,     0.130,1.00000,     0,    38.000, 0.00000E+0, 9.99900E+3, 0.00000E+0, 0.00000E+0,1.00000,1,  100.0,    34.700,     0.000,   1,1.0000,    ,      ,    ,      ,    ,      ,1, 1.0000
921901,'1 ',     2.300,     0.230,     0.230,     0.230,1.00000,     0,    22.000, 0.00000E+0, 9.99900E+3, 0.00000E+0, 0.00000E+0,1.00000,1,  100.0,    20.300,     0.000,   1,1.0000,    ,      ,    ,      ,    ,      ,1, 1.0000
922003,'1 ',     8.600,     0.860,     0.860,     0.860,1.00000,     0,   113.000, 0.00000E+0, 9.99900E+3, 0.00000E+0, 0.00000E+0,1.00000,1,  100.0,   103.000,     0.000,   1,1.0000,    ,      ,    ,      ,    ,      ,1, 1.0000
922004,'1 ',    10.400,     1.040,     1.040,     1.040,1.00000,     0,   138.000, 0.00000E+0, 9.99900E+3, 0.00000E+0, 0.00000E+0,1.00000,1,  100.0,   125.500,     0.000,   1,1.0000,    ,      ,    ,      ,    ,      ,1, 1.0000
922005,'1 ',     6.000,     0.600,     0.600,     0.600,1.00000,     0,    79.000, 0.00000E+0, 9.99900E+3, 0.00000E+0, 0.00000E+0,1.00000,1,  100.0,    72.000,     0.000,   1,1.0000,    ,      ,    ,      ,    ,      ,1, 1.0000
922201,'1 ',     0.200,     0.020,     0.020,     0.020,1.00000,     0,    77.000, 0.00000E+0, 9.99900E+3, 0.00000E+0, 0.00000E+0,1.00000,1,  100.0,    70.300,     0.000,   1,1.0000,    ,      ,    ,      ,    ,      ,1, 1.0000
922501,'1 ',     0.700,     0.070,     0.070,     0.070,1.00000,     0,   107.000, 0.00000E+0, 9.99900E+3, 0.00000E+0, 0.00000E+0,1.00000,1,  100.0,    97.000,     0.000,   1,1.0000,    ,      ,    ,      ,    ,      ,1, 1.0000
923001,'1 ',     0.100,     0.010,     0.010,     0.010,1.00000,     0,    22.000, 0.00000E+0, 9.99900E+3, 0.00000E+0, 0.00000E+0,1.00000,1,  100.0,    20.000,     0.000,   1,1.0000,    ,      ,    ,      ,    ,      ,1, 1.0000
923101,'1 ',     8.000,     0.800,     0.800,     0.800,1.00000,     0,    87.000, 0.00000E+0, 9.99900E+3, 0.00000E+0, 0.00000E+0,1.00000,1,  100.0,    78.700,     0.000,   1,1.0000,    ,      ,    ,      ,    ,      ,1, 1.0000
923102,'1 ',     1.300,     0.130,     0.130,     0.130,1.00000,     0,    15.000, 0.00000E+0, 9.99900E+3, 0.00000E+0, 0.00000E+0,1.00000,1,  100.0,    13.200,     0.000,   1,1.0000,    ,      ,    ,      ,    ,      ,1, 1.0000
924601,'1 ',     2.100,     0.210,     0.210,     0.210,1.00000,     0,    79.000, 0.00000E+0, 9.99900E+3, 0.00000E+0, 0.00000E+0,1.00000,1,  100.0,    71.400,     0.000,   1,1.0000,    ,      ,    ,      ,    ,      ,1, 1.0000
924602,'1 ',     1.500,     0.150,     0.150,     0.150,1.00000,     0,    56.000, 0.00000E+0, 9.99900E+3, 0.00000E+0, 0.00000E+0,1.00000,1,  100.0,    50.700,     0.000,   1,1.0000,    ,      ,    ,      ,    ,      ,1, 1.0000
925701,'1 ',     2.200,     0.220,     0.220,     0.220,1.00000,     0,   158.000, 0.00000E+0, 9.99900E+3, 0.00000E+0, 0.00000E+0,1.00000,1,  100.0,   144.000,     0.000,   1,1.0000,    ,      ,    ,      ,    ,      ,1, 1.0000
925702,'1 ',     0.300,     0.030,     0.030,     0.030,1.00000,     0,     9.000, 0.00000E+0, 9.99900E+3, 0.00000E+0, 0.00000E+0,1.00000,1,  100.0,    20.000,     0.000,   1,1.0000,    ,      ,    ,      ,    ,      ,1, 1.0000
925703,'1 ',     0.200,     0.020,     0.020,     0.020,1.00000,     0,    18.000, 0.00000E+0, 9.99900E+3, 0.00000E+0, 0.00000E+0,1.00000,1,  100.0,    16.000,     0.000,   1,1.0000,    ,      ,    ,      ,    ,      ,1, 1.0000
925704,'1 ',     0.800,     0.080,     0.080,     0.080,1.00000,     0,    46.000, 0.00000E+0, 9.99900E+3, 0.00000E+0, 0.00000E+0,1.00000,1,  100.0,    41.600,     0.000,   1,1.0000,    ,      ,    ,      ,    ,      ,1, 1.0000
925705,'1 ',     0.400,     0.040,     0.040,     0.040,1.00000,     0,     6.000, 0.00000E+0, 9.99900E+3, 0.00000E+0, 0.00000E+0,1.00000,1,  100.0,    20.000,     0.000,   1,1.0000,    ,      ,    ,      ,    ,      ,1, 1.0000
926202,'1 ',    11.200,     1.120,     1.120,     1.120,1.00000,     0,   136.000, 0.00000E+0, 9.99900E+3, 0.00000E+0, 0.00000E+0,1.00000,1,  100.0,   123.800,     0.000,   1,1.0000,    ,      ,    ,      ,    ,      ,1, 1.0000
926203,'1 ',     9.600,     0.960,     0.960,     0.960,1.00000,     0,    48.000, 0.00000E+0, 9.99900E+3, 0.00000E+0, 0.00000E+0,1.00000,1,  100.0,    44.000,     0.000,   1,1.0000,    ,      ,    ,      ,    ,      ,1, 1.0000
926602,'1 ',     3.100,     0.310,     0.310,     0.310,1.00000,     0,    86.000, 0.00000E+0, 9.99900E+3, 0.00000E+0, 0.00000E+0,1.00000,1,  100.0,    78.000,     0.000,   1,1.0000,    ,      ,    ,      ,    ,      ,1, 1.0000
926801,'1 ',     4.700,     0.470,     0.470,     0.470,1.00000,     0,   123.000, 0.00000E+0, 9.99900E+3, 0.00000E+0, 0.00000E+0,1.00000,1,  100.0,   112.000,     0.000,   1,1.0000,    ,      ,    ,      ,    ,      ,1, 1.0000
926802,'1 ',     1.700,     0.170,     0.170,     0.170,1.00000,     0,    44.000, 0.00000E+0, 9.99900E+3, 0.00000E+0, 0.00000E+0,1.00000,1,  100.0,    40.000,     0.000,   1,1.0000,    ,      ,    ,      ,    ,      ,1, 1.0000
927701,'1 ',    26.800,     2.680,     2.680,     2.680,1.00000,     0,   152.000, 0.00000E+0, 9.99900E+3, 0.00000E+0, 0.00000E+0,1.00000,1,  100.0,   138.600,     0.000,   1,1.0000,    ,      ,    ,      ,    ,      ,1, 1.0000
927801,'1 ',     0.500,     0.050,     0.050,     0.050,1.00000,     0,    42.000, 0.00000E+0, 9.99900E+3, 0.00000E+0, 0.00000E+0,1.00000,1,  100.0,    38.000,     0.000,   1,1.0000,    ,      ,    ,      ,    ,      ,1, 1.0000
927802,'1 ',     0.500,     0.050,     0.050,     0.050,1.00000,     0,    42.000, 0.00000E+0, 9.99900E+3, 0.00000E+0, 0.00000E+0,1.00000,1,  100.0,    38.000,     0.000,   1,1.0000,    ,      ,    ,      ,    ,      ,1, 1.0000
927803,'1 ',     1.400,     0.140,     0.140,     0.140,1.00000,     0,   112.000, 0.00000E+0, 9.99900E+3, 0.00000E+0, 0.00000E+0,1.00000,1,  100.0,   101.500,     0.000,   1,1.0000,    ,      ,    ,      ,    ,      ,1, 1.0000
927901,'1 ',     0.500,     0.050,     0.050,     0.050,1.00000,     0,    26.000, 0.00000E+0, 9.99900E+3, 0.00000E+0, 0.00000E+0,1.00000,1,  100.0,    24.000,     0.000,   1,1.0000,    ,      ,    ,      ,    ,      ,1, 1.0000
927902,'1 ',     0.500,     0.050,     0.050,     0.050,1.00000,     0,    24.000, 0.00000E+0, 9.99900E+3, 0.00000E+0, 0.00000E+0,1.00000,1,  100.0,    21.700,     0.000,   1,1.0000,    ,      ,    ,      ,    ,      ,1, 1.0000
927903,'1 ',     1.100,     0.110,     0.110,     0.110,1.00000,     0,    55.000, 0.00000E+0, 9.99900E+3, 0.00000E+0, 0.00000E+0,1.00000,1,  100.0,    50.000,     0.000,   1,1.0000,    ,      ,    ,      ,    ,      ,1, 1.0000
927904,'1 ',     0.500,     0.050,     0.050,     0.050,1.00000,     0,    25.000, 0.00000E+0, 9.99900E+3, 0.00000E+0, 0.00000E+0,1.00000,1,  100.0,    22.600,     0.000,   1,1.0000,    ,      ,    ,      ,    ,      ,1, 1.0000
927905,'1 ',     1.000,     0.100,     0.100,     0.100,1.00000,     0,    53.000, 0.00000E+0, 9.99900E+3, 0.00000E+0, 0.00000E+0,1.00000,1,  100.0,    48.000,     0.000,   1,1.0000,    ,      ,    ,      ,    ,      ,1, 1.0000
927906,'1 ',     3.029,     0.303,     0.303,     0.303,1.00000,     0,     7.000, 0.00000E+0, 9.99900E+3, 0.00000E+0, 0.00000E+0,1.00000,1,  100.0,     6.000,     0.000,   1,1.0000,    ,      ,    ,      ,    ,      ,1, 1.0000
928101,'1 ',     2.300,     0.230,     0.230,     0.230,1.00000,     0,   149.000, 0.00000E+0, 9.99900E+3, 0.00000E+0, 0.00000E+0,1.00000,1,  100.0,   135.000,     0.000,   1,1.0000,    ,      ,    ,      ,    ,      ,1, 1.0000
928102,'1 ',     1.100,     0.110,     0.110,     0.110,1.00000,     0,    34.000, 0.00000E+0, 9.99900E+3, 0.00000E+0, 0.00000E+0,1.00000,1,  100.0,    31.200,     0.000,   1,1.0000,    ,      ,    ,      ,    ,      ,1, 1.0000
928201,'1 ',    57.800,     5.780,     5.780,     5.780,1.00000,     0,   264.000, 0.00000E+0, 9.99900E+3, 0.00000E+0, 0.00000E+0,1.00000,1,  100.0,   240.000,     0.000,   1,1.0000,    ,      ,    ,      ,    ,      ,1, 1.0000
928303,'1 ',     5.100,     0.510,     0.510,     0.510,1.00000,     0,    13.000, 0.00000E+0, 9.99900E+3, 0.00000E+0, 0.00000E+0,1.00000,1,  100.0,    12.000,     0.000,   1,1.0000,    ,      ,    ,      ,    ,      ,1, 1.0000
928304,'1 ',     6.700,     0.670,     0.670,     0.670,1.00000,     0,    18.000, 0.00000E+0, 9.99900E+3, 0.00000E+0, 0.00000E+0,1.00000,1,  100.0,    16.000,     0.000,   1,1.0000,    ,      ,    ,      ,    ,      ,1, 1.0000
928501,'1 ',    16.700,     1.670,     1.670,     1.670,1.00000,     0,    66.000, 0.00000E+0, 9.99900E+3, 0.00000E+0, 0.00000E+0,1.00000,1,  100.0,    60.000,     0.000,   1,1.0000,    ,      ,    ,      ,    ,      ,1, 1.0000
928502,'1 ',     0.600,     0.060,     0.060,     0.060,1.00000,     0,     2.000, 0.00000E+0, 9.99900E+3, 0.00000E+0, 0.00000E+0,1.00000,1,  100.0,     2.000,     0.000,   1,1.0000,    ,      ,    ,      ,    ,      ,1, 1.0000
928601,'1 ',     0.600,     0.060,     0.060,     0.060,1.00000,     0,    48.000, 0.00000E+0, 9.99900E+3, 0.00000E+0, 0.00000E+0,1.00000,1,  100.0,    44.000,     0.000,   1,1.0000,    ,      ,    ,      ,    ,      ,1, 1.0000
928602,'1 ',     0.600,     0.060,     0.060,     0.060,1.00000,     0,    57.000, 0.00000E+0, 9.99900E+3, 0.00000E+0, 0.00000E+0,1.00000,1,  100.0,    51.600,     0.000,   1,1.0000,    ,      ,    ,      ,    ,      ,1, 1.0000
928702,'1 ',     2.600,     0.260,     0.260,     0.260,1.00000,     0,    13.000, 0.00000E+0, 9.99900E+3, 0.00000E+0, 0.00000E+0,1.00000,1,  100.0,    12.000,     0.000,   1,1.0000,    ,      ,    ,      ,    ,      ,1, 1.0000
928703,'1 ',     4.300,     0.430,     0.430,     0.430,1.00000,     0,    22.000, 0.00000E+0, 9.99900E+3, 0.00000E+0, 0.00000E+0,1.00000,1,  100.0,    20.000,     0.000,   1,1.0000,    ,      ,    ,      ,    ,      ,1, 1.0000
928704,'1 ',    17.300,     1.730,     1.730,     1.730,1.00000,     0,    88.000, 0.00000E+0, 9.99900E+3, 0.00000E+0, 0.00000E+0,1.00000,1,  100.0,    79.700,     0.000,   1,1.0000,    ,      ,    ,      ,    ,      ,1, 1.0000
929102,'1 ',     9.600,     0.960,     0.960,     0.960,1.00000,     0,   125.000, 0.00000E+0, 9.99900E+3, 0.00000E+0, 0.00000E+0,1.00000,1,  100.0,   114.000,     0.000,   1,1.0000,    ,      ,    ,      ,    ,      ,1, 1.0000
929104,'1 ',     8.500,     0.850,     0.850,     0.850,1.00000,     0,   112.000, 0.00000E+0, 9.99900E+3, 0.00000E+0, 0.00000E+0,1.00000,1,  100.0,   102.000,     0.000,   1,1.0000,    ,      ,    ,      ,    ,      ,1, 1.0000
929105,'1 ',     2.000,     0.200,     0.200,     0.200,1.00000,     0,    44.000, 0.00000E+0, 9.99900E+3, 0.00000E+0, 0.00000E+0,1.00000,1,  100.0,    40.000,     0.000,   1,1.0000,    ,      ,    ,      ,    ,      ,1, 1.0000
0 / END OF GENERATOR DATA, BEGIN BRANCH DATA
 11015, 70451,'2 ', 9.00000E-4, 9.50000E-3,   0.28834, 1386.00, 1660.00,    0.00,  0.00000,  0.00000,  0.00000,  0.00000,1,2,  48.80,   2,1.0000
 11016, 70451,'1 ', 9.00000E-4, 9.52000E-3,   0.28796, 1386.00, 1386.00,    0.00,  0.00000,  0.00000,  0.00000,  0.00000,1,2,  48.80,   2,1.0000
 14030, 70457,'1 ', 5.00000E-4, 5.61000E-3,   0.14990, 1386.00, 1639.00,    0.00,  0.00000,  0.00000,  0.00000,  0.00000,1,1,  27.14,   2,1.0000
 15013, 70484,'1 ', 8.70000E-4, 7.82000E-3,   0.23286, 1640.00, 1640.00,    0.00,  0.00000,  0.00000,  0.00000,  0.00000,1,2,  39.90,   2,1.0000
 22010, 70207,'1 ', 6.30000E-3, 3.58400E-2,   0.05497,  435.00,  476.00,    0.00,  0.00000,  0.00000,  0.00000,  0.00000,1,1,  41.51,   2,1.0000
 22011, 72090,'1 ', 3.09000E-3, 1.72200E-2,   0.02516,  435.00,  476.00,    0.00,  0.00000,  0.00000,  0.00000,  0.00000,1,1,  19.37,   2,1.0000
 22195, 70207,'1 ', 4.81000E-3, 2.67100E-2,   0.03938,  430.00,  430.00,    0.00,  0.00000,  0.00000,  0.00000,  0.00000,1,1,  30.32,   2,1.0000
 70101, 71060,'1 ', 2.00700E-2, 6.86700E-2,   0.02205,  104.00,  125.00,    0.00,  0.00000,  0.00000,  0.00000,  0.00000,1,2,  36.57,   2,1.0000
 70101, 71060,'2 ', 2.01400E-2, 6.87200E-2,   0.02229,  104.00,  125.00,    0.00,  0.00000,  0.00000,  0.00000,  0.00000,1,2,  36.61,   2,1.0000
 70103, 70108,'1 ', 5.20000E-3, 1.75000E-2,   0.00590,  153.00,  153.00,    0.00,  0.00000,  0.00000,  0.00000,  0.00000,1,2,   0.00,   9,1.0000
 70103, 70108,'2 ', 5.24000E-3, 1.74800E-2,   0.00588,  153.00,  184.00,    0.00,  0.00000,  0.00000,  0.00000,  0.00000,1,2,   9.53,   2,1.0000
 70103, 70122,'1 ', 1.93000E-2, 5.08300E-2,   0.01933,  134.00,  161.00,    0.00,  0.00000,  0.00000,  0.00000,  0.00000,1,2,  28.50,   2,1.0000
 70103, 70122,'2 ', 1.38000E-2, 4.93000E-2,   0.01730,  153.00,  153.00,    0.00,  0.00000,  0.00000,  0.00000,  0.00000,1,2,   0.00,   2,1.0000
 70103, 70122,'3 ', 1.38000E-2, 4.93000E-2,   0.01730,  153.00,  153.00,    0.00,  0.00000,  0.00000,  0.00000,  0.00000,1,2,   0.00,   2,1.0000
 70103, 70122,'4 ', 1.84300E-2, 6.20800E-2,   0.02016,  153.00,  184.00,    0.00,  0.00000,  0.00000,  0.00000,  0.00000,1,2,  33.20,   2,1.0000
 70103, 71987,'3 ', 1.78000E-3, 9.49000E-3,   0.00323,  203.00,  244.00,    0.00,  0.00000,  0.00000,  0.00000,  0.00000,1,2,   5.20,   2,1.0000
 70104, 70117,'1 ', 1.46000E-3, 7.87000E-3,   0.00265,  260.00,  296.00,    0.00,  0.00000,  0.00000,  0.00000,  0.00000,1,2,   4.26,   2,1.0000
 70104, 70117,'2 ', 1.46000E-3, 7.69000E-3,   0.00260,  260.00,  260.00,    0.00,  0.00000,  0.00000,  0.00000,  0.00000,1,2,   4.18,   2,1.0000
 70104, 70117,'3 ', 1.42000E-3, 7.61000E-3,   0.00256,  255.00,  255.00,    0.00,  0.00000,  0.00000,  0.00000,  0.00000,1,2,   4.13,   2,1.0000
 70105, 70139,'1 ', 2.09800E-2, 1.11680E-1,   0.03801,  260.00,  312.00,    0.00,  0.00000,  0.00000,  0.00000,  0.00000,1,2,  61.30,   2,1.0000
 70105, 70150,'1 ', 2.44500E-2, 8.16600E-2,   0.02747,  206.00,  236.00,    0.00,  0.00000,  0.00000,  0.00000,  0.00000,1,1,  44.51,   2,1.0000
...